/*--------------------------------*- C++ -*----------------------------------*\
  =========                 |
  \\      /  F ield         | OpenFOAM: The Open Source CFD Toolbox
   \\    /   O peration     | Website:  https://openfoam.org
    \\  /    A nd           | Version:  7
     \\/     M anipulation  |
\*---------------------------------------------------------------------------*/
FoamFile
{
    version     2.0;
    format      ascii;
    class       polyBoundaryMesh;
    location    "constant/polyMesh";
    object      boundary;
}
// * * * * * * * * * * * * * * * * * * * * * * * * * * * * * * * * * * * * * //

6
(
    front
    {
        type            cyclic;
        inGroups        List<word> 1(cyclic);
        nFaces          16384;
        startFace       6242304;
        matchTolerance  0.0001;
        transform       unknown;
        neighbourPatch  back;
    }
    back
    {
        type            cyclic;
        inGroups        List<word> 1(cyclic);
        nFaces          16384;
        startFace       6258688;
        matchTolerance  0.0001;
        transform       unknown;
        neighbourPatch  front;
    }
    left
    {
        type            cyclic;
        inGroups        List<word> 1(cyclic);
        nFaces          16384;
        startFace       6275072;
        matchTolerance  0.0001;
        transform       unknown;
        neighbourPatch  right;
    }
    right
    {
        type            cyclic;
        inGroups        List<word> 1(cyclic);
        nFaces          16384;
        startFace       6291456;
        matchTolerance  0.0001;
        transform       unknown;
        neighbourPatch  left;
    }
    top
    {
        type            cyclic;
        inGroups        List<word> 1(cyclic);
        nFaces          16384;
        startFace       6307840;
        matchTolerance  0.0001;
        transform       unknown;
        neighbourPatch  down;
    }
    down
    {
        type            cyclic;
        inGroups        List<word> 1(cyclic);
        nFaces          16384;
        startFace       6324224;
        matchTolerance  0.0001;
        transform       unknown;
        neighbourPatch  top;
    }
)

// ************************************************************************* //
